! aug-cc-pVTZ aug-cc-pVTZ/C DLPNO-CCSD(T)  

%maxcore 1000000
%PAL NPROCS 50 END


* xyz 0 1
C    1.196745   0.716602   0.000000
C    0.000000   1.394554   0.000000
C   -1.196745   0.716602   0.000000
C   -1.196745  -0.716602   0.000000
C    0.000000  -1.394554   0.000000
C    1.196745  -0.716602   0.000000
H    2.140067   1.281657   0.000000
H    0.000000   2.494008   0.000000
H   -2.140067   1.281657   0.000000
H   -2.140067  -1.281657   0.000000
H    0.000000  -2.494008   0.000000
H    2.140067  -1.281657   0.000000
*
