! aug-cc-pVTZ aug-cc-pVTZ/C DLPNO-CCSD(T) 

%maxcore 6000000
%PAL NPROCS 60 END


* xyz +1 1
C    1.196745   0.716602   0.000000
C    0.000000   1.394554   0.000000
C   -1.196745   0.716602   0.000000
C   -1.196745  -0.716602   0.000000
C    0.000000  -1.394554   0.000000
C    1.196745  -0.716602   0.000000
H    2.140067   1.281657   0.000000
H    0.000000   2.494008   0.000000
H   -2.140067   1.281657   0.000000
H   -2.140067  -1.281657   0.000000
H    0.000000  -2.494008   0.000000
H    2.140067  -1.281657   0.000000
H   -0.841770   0.004911   3.501509
H    0.825367   0.004911   3.501509
H   -0.008201  -0.790460   2.244923
H   -0.008201   0.800282   2.244923
N   -0.008201   0.004911   2.897443
*
